Version 4.1
SHEET 1 1272 680
WIRE 144 -672 -976 -672
WIRE -976 -576 -976 -672
WIRE -448 -576 -976 -576
WIRE -1088 -544 -1264 -544
WIRE -1088 -512 -1088 -544
WIRE -1264 -448 -1264 -544
WIRE -1088 -384 -1088 -432
WIRE -976 -384 -976 -576
WIRE -976 -384 -1088 -384
WIRE -16 -352 -16 -384
WIRE -352 -336 -352 -384
WIRE -448 -320 -448 -576
WIRE -384 -320 -448 -320
WIRE -1088 -304 -1088 -384
WIRE -224 -304 -224 -448
WIRE -224 -304 -320 -304
WIRE -160 -304 -224 -304
WIRE -384 -288 -864 -288
WIRE 352 -272 352 -336
WIRE 320 -256 160 -256
WIRE 544 -240 384 -240
WIRE 656 -240 544 -240
WIRE 848 -240 720 -240
WIRE -16 -224 -16 -256
WIRE 144 -224 144 -672
WIRE 320 -224 144 -224
WIRE -16 -160 -64 -160
WIRE -64 -144 -64 -160
WIRE 144 -112 -928 -112
WIRE 944 -64 944 -240
WIRE 1088 -64 1040 -64
WIRE 1200 -64 1152 -64
WIRE 1200 -32 1200 -64
WIRE 848 112 848 -240
WIRE 912 112 848 112
WIRE 992 112 992 80
WIRE 992 112 912 112
WIRE -368 128 -368 96
WIRE -864 144 -864 -288
WIRE -400 144 -864 144
WIRE -224 160 -224 96
WIRE -224 160 -336 160
WIRE -1264 176 -1280 176
WIRE -928 176 -928 -112
WIRE -928 176 -1264 176
WIRE -400 176 -928 176
WIRE -368 272 -464 272
WIRE -224 272 -224 160
WIRE -224 272 -288 272
WIRE -272 384 -320 384
WIRE -128 384 -128 352
WIRE -128 384 -192 384
WIRE -1040 416 -1200 416
WIRE -864 416 -864 144
WIRE -864 416 -960 416
WIRE -464 432 -464 272
WIRE -384 432 -464 432
WIRE -1200 464 -1200 416
WIRE 352 496 352 432
WIRE 144 512 144 -112
WIRE 320 512 144 512
WIRE 560 528 384 528
WIRE 688 528 560 528
WIRE 848 528 848 112
WIRE 848 528 752 528
WIRE 160 544 160 -256
WIRE 320 544 160 544
WIRE -320 560 -320 480
WIRE -288 560 -320 560
WIRE -192 560 -224 560
WIRE -192 576 -192 560
WIRE -864 672 -864 416
WIRE 160 672 160 544
WIRE 160 672 -864 672
FLAG -1264 -368 0
FLAG -1088 -224 0
FLAG -352 -272 0
FLAG -368 192 0
FLAG 352 -208 0
FLAG 352 560 0
FLAG -1200 544 0
FLAG -368 16 0
FLAG -224 -64 0
FLAG -352 -464 0
FLAG -224 -608 0
FLAG 352 -416 0
FLAG 352 352 0
FLAG -1344 176 0
FLAG -16 -544 0
FLAG -64 -144 0
FLAG 544 -400 0
FLAG 560 368 0
FLAG 912 192 0
FLAG 1200 -32 0
FLAG -128 272 0
FLAG 944 -400 0
FLAG -192 576 0
SYMBOL OpAmps\\LM308 -352 -368 R0
SYMATTR InstName U1A
SYMBOL OpAmps\\LM308 -368 96 R0
SYMATTR InstName U1B
SYMBOL voltage -1264 -464 R0
WINDOW 123 0 0 Left 0
WINDOW 39 0 0 Left 0
SYMATTR InstName BAT1
SYMATTR Value 12V
SYMBOL res -1104 -528 R0
SYMATTR InstName R1
SYMATTR Value 430
SYMBOL res -1104 -320 R0
SYMATTR InstName R2
SYMATTR Value 10k
SYMBOL OpAmps\\LM308 352 -304 R0
SYMATTR InstName U3A
SYMBOL OpAmps\\LM308 352 464 R0
SYMATTR InstName U2A
SYMBOL voltage -1200 448 R0
SYMATTR InstName BAT2
SYMATTR Value 9V
SYMBOL res -944 400 R90
WINDOW 0 0 56 VBottom 2
WINDOW 3 32 56 VTop 2
SYMATTR InstName R14
SYMATTR Value 100
SYMBOL voltage -1248 176 R90
WINDOW 0 -32 56 VBottom 2
WINDOW 3 32 56 VTop 2
SYMATTR InstName Vref2
SYMATTR Value 8.5V
SYMBOL voltage -352 -368 R180
WINDOW 0 24 96 Left 2
WINDOW 3 24 16 Left 2
SYMATTR InstName Vcc1
SYMATTR Value 12V
SYMBOL res -240 -544 R0
SYMATTR InstName R15
SYMATTR Value 10k
SYMBOL voltage -224 -512 R180
WINDOW 0 24 96 Left 2
WINDOW 3 24 16 Left 2
SYMATTR InstName Vcc2
SYMATTR Value 12V
SYMBOL voltage -368 112 R180
WINDOW 0 24 96 Left 2
WINDOW 3 24 16 Left 2
SYMATTR InstName Vcc4
SYMATTR Value 12V
SYMBOL voltage 352 -320 R180
WINDOW 0 24 96 Left 2
WINDOW 3 24 16 Left 2
SYMATTR InstName Vcc6
SYMATTR Value 12V
SYMBOL voltage 352 448 R180
WINDOW 0 24 96 Left 2
WINDOW 3 24 16 Left 2
SYMATTR InstName Vcc7
SYMATTR Value 12V
SYMBOL res -240 0 R0
SYMATTR InstName R6
SYMATTR Value 10k
SYMBOL voltage -224 32 R180
WINDOW 0 24 96 Left 2
WINDOW 3 24 16 Left 2
SYMATTR InstName Vcc3
SYMATTR Value 12V
SYMBOL Contrib\\Toshiba\\bjt\\TMBT3904 -80 -352 R0
SYMATTR InstName Q1
SYMBOL Contrib\\Toshiba\\bjt\\TMBT3904 944 0 R270
SYMATTR InstName Q2
SYMBOL Contrib\\Toshiba\\bjt\\TMBT3904 -384 384 R0
SYMATTR InstName Q3
SYMBOL res -272 256 R90
WINDOW 0 0 56 VBottom 2
WINDOW 3 32 56 VTop 2
SYMATTR InstName R9
SYMATTR Value 10k
SYMBOL res -176 368 R90
WINDOW 0 0 56 VBottom 2
WINDOW 3 32 56 VTop 2
SYMATTR InstName R11
SYMATTR Value 330
SYMBOL voltage -128 368 R180
WINDOW 0 24 96 Left 2
WINDOW 3 24 16 Left 2
WINDOW 123 0 0 Left 0
WINDOW 39 0 0 Left 0
SYMATTR InstName Vcc5
SYMATTR Value 12V
SYMBOL LED -32 -224 R0
SYMATTR InstName D1
SYMBOL LED 1088 -48 R270
WINDOW 0 72 32 VTop 2
WINDOW 3 0 32 VBottom 2
SYMATTR InstName D2
SYMBOL LED -288 576 R270
WINDOW 0 27 68 VTop 2
WINDOW 3 0 32 VBottom 2
SYMATTR InstName D3
SYMBOL res -64 -320 R90
WINDOW 0 0 56 VBottom 2
WINDOW 3 32 56 VTop 2
SYMATTR InstName R8
SYMATTR Value 10k
SYMBOL res -32 -480 R0
SYMATTR InstName R13
SYMATTR Value 330
SYMBOL voltage -16 -448 R180
WINDOW 0 24 96 Left 2
WINDOW 3 24 16 Left 2
SYMATTR InstName Vcc8
SYMATTR Value 12V
SYMBOL res 544 432 R0
SYMATTR InstName R7
SYMATTR Value 10k
SYMBOL voltage 560 464 R180
WINDOW 0 24 96 Left 2
WINDOW 3 24 16 Left 2
SYMATTR InstName Vcc9
SYMATTR Value 12V
SYMBOL diode 688 544 R270
WINDOW 0 32 32 VTop 2
WINDOW 3 0 32 VBottom 2
SYMATTR InstName D4
SYMBOL diode 656 -224 R270
WINDOW 0 32 32 VTop 2
WINDOW 3 0 32 VBottom 2
SYMATTR InstName D5
SYMBOL res 528 -336 R0
SYMATTR InstName R16
SYMATTR Value 10k
SYMBOL voltage 544 -304 R180
WINDOW 0 24 96 Left 2
WINDOW 3 24 16 Left 2
SYMATTR InstName Vcc10
SYMATTR Value 12V
SYMBOL res 896 96 R0
SYMATTR InstName R17
SYMATTR Value 10k
SYMBOL res 976 -16 R0
SYMATTR InstName R10
SYMATTR Value 10k
SYMBOL res 928 -336 R0
SYMATTR InstName R12
SYMATTR Value 330
SYMBOL voltage 944 -304 R180
WINDOW 0 24 96 Left 2
WINDOW 3 24 16 Left 2
SYMATTR InstName Vcc11
SYMATTR Value 12V
TEXT -1080 -392 Left 0 ;Vref1 = 11.48V
TEXT -1256 136 Left 0 ;Vref2 = 8.5
TEXT 0 0 Left 2 !.dc BAT2 6 13 0.5
